test/fixtures/opendss/component_transformer_parity.dss
Clear
New Circuit.transformer_parity BasekV=12.47 pu=1.0 phases=3 bus1=src.1.2.3

New Transformer.tx1 phases=3 windings=2
~ buses=[src.1.2.3 txbus.1.2.3]
~ conns=[wye wye]
~ kvs=[12.47 4.16]
~ kvas=[1500 1500]
~ xhl=5.5 %loadloss=0.6

New Transformer.reg1 phases=1 windings=2
~ buses=[txbus.1 regbus.1]
~ conns=[wye wye]
~ kvs=[2.4 2.4]
~ kvas=[500 500]
~ xhl=1.2 %loadloss=0.2 taps=[1.0 1.0125]

New RegControl.reg1 transformer=reg1 winding=2 vreg=122 band=2 ptratio=20 ctprim=50

New LineCode.tie nphases=1 units=kft r1=0.4 x1=0.8 c1=0
New Line.tie1 phases=1 bus1=regbus.1 bus2=loadbus.1 linecode=tie length=0.05
New Load.anchor phases=1 bus1=loadbus.1 conn=wye kv=2.4 kW=50 kvar=15 model=1

Solve
